 CRYSTAL
 PRIMVEC
    1.4340702350    1.4340702350    1.4340702350
   -1.4340702350    1.4340702350    1.4340702350
   -1.4340702350   -1.4340702350    1.4340702350
 CONVVEC
    2.8681404710    0.0000000000    0.0000000000
    0.0000000000    2.8681404710    0.0000000000
    0.0000000000    0.0000000000    2.8681404710
 PRIMCOORD
           1           1
 26      0.0000000000     0.0000000000     0.0000000000
 CONVCOORD
           1           2
 26      0.0000000000     0.0000000000     0.0000000000
 26      1.4340702350     1.4340702350     1.4340702350
 RECIP-PRIMVEC
    0.3486579582    0.0000000000    0.3486579582

   -0.3486579582    0.3486579582    0.0000000000

    0.0000000000   -0.3486579582    0.3486579582

 RECIP-CONVVEC
    0.3486579580    0.0000000000    0.0000000000

    0.0000000000    0.3486579580    0.0000000000

    0.0000000000    0.0000000000    0.3486579580

 WIGNER-SEITZ-PRIMCELL
           4
 -0.7170351E+00 -0.1505771E-15 -0.1434070E+01   0.0000000E+00  0.0000000E+00 -0.1000000E+01
  0.1505771E-15  0.7170351E+00 -0.1434070E+01   0.0000000E+00  0.0000000E+00 -0.1000000E+01
  0.7170351E+00 -0.1505771E-15 -0.1434070E+01   0.0000000E+00  0.0000000E+00 -0.1000000E+01
  0.1505771E-15 -0.7170351E+00 -0.1434070E+01   0.0000000E+00  0.0000000E+00 -0.1000000E+01
           6
 -0.7170351E+00 -0.1434070E+01 -0.1505771E-15  -0.5773503E+00 -0.5773503E+00 -0.5773503E+00
 -0.1434070E+01 -0.7170351E+00  0.1505771E-15  -0.5773503E+00 -0.5773503E+00 -0.5773503E+00
 -0.1434070E+01  0.1505771E-15 -0.7170351E+00  -0.5773503E+00 -0.5773503E+00 -0.5773503E+00
 -0.7170351E+00 -0.1505771E-15 -0.1434070E+01  -0.5773503E+00 -0.5773503E+00 -0.5773503E+00
  0.1505771E-15 -0.7170351E+00 -0.1434070E+01  -0.5773503E+00 -0.5773503E+00 -0.5773503E+00
 -0.1505771E-15 -0.1434070E+01 -0.7170351E+00  -0.5773503E+00 -0.5773503E+00 -0.5773503E+00
           6
 -0.1505771E-15  0.1434070E+01 -0.7170351E+00  -0.5773503E+00  0.5773503E+00 -0.5773503E+00
  0.1505771E-15  0.7170351E+00 -0.1434070E+01  -0.5773503E+00  0.5773503E+00 -0.5773503E+00
 -0.7170351E+00 -0.1505771E-15 -0.1434070E+01  -0.5773503E+00  0.5773503E+00 -0.5773503E+00
 -0.1434070E+01  0.1505771E-15 -0.7170351E+00  -0.5773503E+00  0.5773503E+00 -0.5773503E+00
 -0.1434070E+01  0.7170351E+00  0.1505771E-15  -0.5773503E+00  0.5773503E+00 -0.5773503E+00
 -0.7170351E+00  0.1434070E+01 -0.1505771E-15  -0.5773503E+00  0.5773503E+00 -0.5773503E+00
           6
  0.1434070E+01 -0.7170351E+00  0.1505771E-15   0.5773503E+00 -0.5773503E+00 -0.5773503E+00
  0.7170351E+00 -0.1434070E+01 -0.1505771E-15   0.5773503E+00 -0.5773503E+00 -0.5773503E+00
 -0.1505771E-15 -0.1434070E+01 -0.7170351E+00   0.5773503E+00 -0.5773503E+00 -0.5773503E+00
  0.1505771E-15 -0.7170351E+00 -0.1434070E+01   0.5773503E+00 -0.5773503E+00 -0.5773503E+00
  0.7170351E+00 -0.1505771E-15 -0.1434070E+01   0.5773503E+00 -0.5773503E+00 -0.5773503E+00
  0.1434070E+01  0.1505771E-15 -0.7170351E+00   0.5773503E+00 -0.5773503E+00 -0.5773503E+00
           6
  0.1434070E+01  0.1505771E-15 -0.7170351E+00   0.5773503E+00  0.5773503E+00 -0.5773503E+00
  0.7170351E+00 -0.1505771E-15 -0.1434070E+01   0.5773503E+00  0.5773503E+00 -0.5773503E+00
  0.1505771E-15  0.7170351E+00 -0.1434070E+01   0.5773503E+00  0.5773503E+00 -0.5773503E+00
 -0.1505771E-15  0.1434070E+01 -0.7170351E+00   0.5773503E+00  0.5773503E+00 -0.5773503E+00
  0.7170351E+00  0.1434070E+01 -0.1505771E-15   0.5773503E+00  0.5773503E+00 -0.5773503E+00
  0.1434070E+01  0.7170351E+00  0.1505771E-15   0.5773503E+00  0.5773503E+00 -0.5773503E+00
           4
 -0.1434070E+01  0.1505771E-15  0.7170351E+00  -0.1000000E+01  0.0000000E+00  0.0000000E+00
 -0.1434070E+01  0.7170351E+00  0.1505771E-15  -0.1000000E+01  0.0000000E+00  0.0000000E+00
 -0.1434070E+01  0.1505771E-15 -0.7170351E+00  -0.1000000E+01  0.0000000E+00  0.0000000E+00
 -0.1434070E+01 -0.7170351E+00  0.1505771E-15  -0.1000000E+01  0.0000000E+00  0.0000000E+00
           6
  0.1505771E-15 -0.7170351E+00  0.1434070E+01  -0.5773503E+00 -0.5773503E+00  0.5773503E+00
 -0.7170351E+00 -0.1505771E-15  0.1434070E+01  -0.5773503E+00 -0.5773503E+00  0.5773503E+00
 -0.1434070E+01  0.1505771E-15  0.7170351E+00  -0.5773503E+00 -0.5773503E+00  0.5773503E+00
 -0.1434070E+01 -0.7170351E+00  0.1505771E-15  -0.5773503E+00 -0.5773503E+00  0.5773503E+00
 -0.7170351E+00 -0.1434070E+01 -0.1505771E-15  -0.5773503E+00 -0.5773503E+00  0.5773503E+00
 -0.1505771E-15 -0.1434070E+01  0.7170351E+00  -0.5773503E+00 -0.5773503E+00  0.5773503E+00
           4
 -0.7170351E+00 -0.1434070E+01 -0.1505771E-15   0.0000000E+00 -0.1000000E+01 -0.0000000E+00
 -0.1505771E-15 -0.1434070E+01 -0.7170351E+00   0.0000000E+00 -0.1000000E+01 -0.0000000E+00
  0.7170351E+00 -0.1434070E+01 -0.1505771E-15   0.0000000E+00 -0.1000000E+01 -0.0000000E+00
 -0.1505771E-15 -0.1434070E+01  0.7170351E+00   0.0000000E+00 -0.1000000E+01 -0.0000000E+00
           6
 -0.1505771E-15  0.1434070E+01  0.7170351E+00  -0.5773503E+00  0.5773503E+00  0.5773503E+00
 -0.7170351E+00  0.1434070E+01 -0.1505771E-15  -0.5773503E+00  0.5773503E+00  0.5773503E+00
 -0.1434070E+01  0.7170351E+00  0.1505771E-15  -0.5773503E+00  0.5773503E+00  0.5773503E+00
 -0.1434070E+01  0.1505771E-15  0.7170351E+00  -0.5773503E+00  0.5773503E+00  0.5773503E+00
 -0.7170351E+00 -0.1505771E-15  0.1434070E+01  -0.5773503E+00  0.5773503E+00  0.5773503E+00
  0.1505771E-15  0.7170351E+00  0.1434070E+01  -0.5773503E+00  0.5773503E+00  0.5773503E+00
           4
 -0.1505771E-15  0.1434070E+01  0.7170351E+00  -0.0000000E+00  0.1000000E+01  0.0000000E+00
  0.7170351E+00  0.1434070E+01 -0.1505771E-15  -0.0000000E+00  0.1000000E+01  0.0000000E+00
 -0.1505771E-15  0.1434070E+01 -0.7170351E+00  -0.0000000E+00  0.1000000E+01  0.0000000E+00
 -0.7170351E+00  0.1434070E+01 -0.1505771E-15  -0.0000000E+00  0.1000000E+01  0.0000000E+00
           6
  0.7170351E+00 -0.1505771E-15  0.1434070E+01   0.5773503E+00 -0.5773503E+00  0.5773503E+00
  0.1505771E-15 -0.7170351E+00  0.1434070E+01   0.5773503E+00 -0.5773503E+00  0.5773503E+00
 -0.1505771E-15 -0.1434070E+01  0.7170351E+00   0.5773503E+00 -0.5773503E+00  0.5773503E+00
  0.7170351E+00 -0.1434070E+01 -0.1505771E-15   0.5773503E+00 -0.5773503E+00  0.5773503E+00
  0.1434070E+01 -0.7170351E+00  0.1505771E-15   0.5773503E+00 -0.5773503E+00  0.5773503E+00
  0.1434070E+01  0.1505771E-15  0.7170351E+00   0.5773503E+00 -0.5773503E+00  0.5773503E+00
           4
  0.1434070E+01 -0.7170351E+00  0.1505771E-15   0.1000000E+01 -0.0000000E+00 -0.0000000E+00
  0.1434070E+01  0.1505771E-15 -0.7170351E+00   0.1000000E+01 -0.0000000E+00 -0.0000000E+00
  0.1434070E+01  0.7170351E+00  0.1505771E-15   0.1000000E+01 -0.0000000E+00 -0.0000000E+00
  0.1434070E+01  0.1505771E-15  0.7170351E+00   0.1000000E+01 -0.0000000E+00 -0.0000000E+00
           6
  0.1434070E+01  0.1505771E-15  0.7170351E+00   0.5773503E+00  0.5773503E+00  0.5773503E+00
  0.1434070E+01  0.7170351E+00  0.1505771E-15   0.5773503E+00  0.5773503E+00  0.5773503E+00
  0.7170351E+00  0.1434070E+01 -0.1505771E-15   0.5773503E+00  0.5773503E+00  0.5773503E+00
 -0.1505771E-15  0.1434070E+01  0.7170351E+00   0.5773503E+00  0.5773503E+00  0.5773503E+00
  0.1505771E-15  0.7170351E+00  0.1434070E+01   0.5773503E+00  0.5773503E+00  0.5773503E+00
  0.7170351E+00 -0.1505771E-15  0.1434070E+01   0.5773503E+00  0.5773503E+00  0.5773503E+00
           4
  0.1505771E-15 -0.7170351E+00  0.1434070E+01  -0.0000000E+00 -0.0000000E+00  0.1000000E+01
  0.7170351E+00 -0.1505771E-15  0.1434070E+01  -0.0000000E+00 -0.0000000E+00  0.1000000E+01
  0.1505771E-15  0.7170351E+00  0.1434070E+01  -0.0000000E+00 -0.0000000E+00  0.1000000E+01
 -0.7170351E+00 -0.1505771E-15  0.1434070E+01  -0.0000000E+00 -0.0000000E+00  0.1000000E+01
 WIGNER-SEITZ-PRIMCELL_END
 WIGNER-SEITZ-CONVCELL
           4
 -0.1434070E+01 -0.1434070E+01  0.1434070E+01  -0.1000000E+01  0.0000000E+00  0.0000000E+00
 -0.1434070E+01  0.1434070E+01  0.1434070E+01  -0.1000000E+01  0.0000000E+00  0.0000000E+00
 -0.1434070E+01  0.1434070E+01 -0.1434070E+01  -0.1000000E+01  0.0000000E+00  0.0000000E+00
 -0.1434070E+01 -0.1434070E+01 -0.1434070E+01  -0.1000000E+01  0.0000000E+00  0.0000000E+00
           4
 -0.1434070E+01 -0.1434070E+01 -0.1434070E+01  -0.0000000E+00 -0.1000000E+01 -0.0000000E+00
  0.1434070E+01 -0.1434070E+01 -0.1434070E+01  -0.0000000E+00 -0.1000000E+01 -0.0000000E+00
  0.1434070E+01 -0.1434070E+01  0.1434070E+01  -0.0000000E+00 -0.1000000E+01 -0.0000000E+00
 -0.1434070E+01 -0.1434070E+01  0.1434070E+01  -0.0000000E+00 -0.1000000E+01 -0.0000000E+00
           4
 -0.1434070E+01  0.1434070E+01 -0.1434070E+01   0.0000000E+00  0.0000000E+00 -0.1000000E+01
  0.1434070E+01  0.1434070E+01 -0.1434070E+01   0.0000000E+00  0.0000000E+00 -0.1000000E+01
  0.1434070E+01 -0.1434070E+01 -0.1434070E+01   0.0000000E+00  0.0000000E+00 -0.1000000E+01
 -0.1434070E+01 -0.1434070E+01 -0.1434070E+01   0.0000000E+00  0.0000000E+00 -0.1000000E+01
           4
 -0.1434070E+01 -0.1434070E+01  0.1434070E+01  -0.0000000E+00 -0.0000000E+00  0.1000000E+01
  0.1434070E+01 -0.1434070E+01  0.1434070E+01  -0.0000000E+00 -0.0000000E+00  0.1000000E+01
  0.1434070E+01  0.1434070E+01  0.1434070E+01  -0.0000000E+00 -0.0000000E+00  0.1000000E+01
 -0.1434070E+01  0.1434070E+01  0.1434070E+01  -0.0000000E+00 -0.0000000E+00  0.1000000E+01
           4
 -0.1434070E+01  0.1434070E+01  0.1434070E+01   0.0000000E+00  0.1000000E+01  0.0000000E+00
  0.1434070E+01  0.1434070E+01  0.1434070E+01   0.0000000E+00  0.1000000E+01  0.0000000E+00
  0.1434070E+01  0.1434070E+01 -0.1434070E+01   0.0000000E+00  0.1000000E+01  0.0000000E+00
 -0.1434070E+01  0.1434070E+01 -0.1434070E+01   0.0000000E+00  0.1000000E+01  0.0000000E+00
           4
  0.1434070E+01 -0.1434070E+01  0.1434070E+01   0.1000000E+01 -0.0000000E+00 -0.0000000E+00
  0.1434070E+01 -0.1434070E+01 -0.1434070E+01   0.1000000E+01 -0.0000000E+00 -0.0000000E+00
  0.1434070E+01  0.1434070E+01 -0.1434070E+01   0.1000000E+01 -0.0000000E+00 -0.0000000E+00
  0.1434070E+01  0.1434070E+01  0.1434070E+01   0.1000000E+01 -0.0000000E+00 -0.0000000E+00
 WIGNER-SEITZ-CONVCELL_END
 BRILLOUIN-ZONE-PRIMCELL
           4
 -0.1743290E+00 -0.1743290E+00 -0.1743290E+00  -0.0000000E+00 -0.7071068E+00 -0.7071068E+00
 -0.0000000E+00 -0.0000000E+00 -0.3486580E+00  -0.0000000E+00 -0.7071068E+00 -0.7071068E+00
  0.1743290E+00 -0.1743290E+00 -0.1743290E+00  -0.0000000E+00 -0.7071068E+00 -0.7071068E+00
  0.0000000E+00 -0.3486580E+00  0.2046452E-16  -0.0000000E+00 -0.7071068E+00 -0.7071068E+00
           4
 -0.1743290E+00  0.1743290E+00 -0.1743290E+00  -0.7071068E+00 -0.0000000E+00 -0.7071068E+00
  0.2046452E-16 -0.0000000E+00 -0.3486580E+00  -0.7071068E+00 -0.0000000E+00 -0.7071068E+00
 -0.1743290E+00 -0.1743290E+00 -0.1743290E+00  -0.7071068E+00 -0.0000000E+00 -0.7071068E+00
 -0.3486580E+00 -0.0000000E+00 -0.2046452E-16  -0.7071068E+00 -0.0000000E+00 -0.7071068E+00
           4
  0.3486580E+00  0.0000000E+00 -0.2046452E-16   0.7071068E+00 -0.4036232E-16 -0.7071068E+00
  0.1743290E+00 -0.1743290E+00 -0.1743290E+00   0.7071068E+00 -0.4036232E-16 -0.7071068E+00
  0.2046452E-16 -0.0000000E+00 -0.3486580E+00   0.7071068E+00 -0.4036232E-16 -0.7071068E+00
  0.1743290E+00  0.1743290E+00 -0.1743290E+00   0.7071068E+00 -0.4036232E-16 -0.7071068E+00
           4
 -0.0000000E+00  0.3486580E+00  0.2046452E-16   0.0000000E+00  0.7071068E+00 -0.7071068E+00
  0.1743290E+00  0.1743290E+00 -0.1743290E+00   0.0000000E+00  0.7071068E+00 -0.7071068E+00
  0.2046452E-16 -0.0000000E+00 -0.3486580E+00   0.0000000E+00  0.7071068E+00 -0.7071068E+00
 -0.1743290E+00  0.1743290E+00 -0.1743290E+00   0.0000000E+00  0.7071068E+00 -0.7071068E+00
           4
 -0.1743290E+00 -0.1743290E+00  0.1743290E+00  -0.7071068E+00 -0.7071068E+00  0.2421739E-15
 -0.3486580E+00 -0.0000000E+00 -0.0000000E+00  -0.7071068E+00 -0.7071068E+00  0.2421739E-15
 -0.1743290E+00 -0.1743290E+00 -0.1743290E+00  -0.7071068E+00 -0.7071068E+00  0.2421739E-15
 -0.2046452E-16 -0.3486580E+00  0.0000000E+00  -0.7071068E+00 -0.7071068E+00  0.2421739E-15
           4
 -0.2046452E-16 -0.3486580E+00  0.0000000E+00   0.7071068E+00 -0.7071068E+00  0.2421739E-15
  0.1743290E+00 -0.1743290E+00 -0.1743290E+00   0.7071068E+00 -0.7071068E+00  0.2421739E-15
  0.3486580E+00  0.0000000E+00  0.0000000E+00   0.7071068E+00 -0.7071068E+00  0.2421739E-15
  0.1743290E+00 -0.1743290E+00  0.1743290E+00   0.7071068E+00 -0.7071068E+00  0.2421739E-15
           4
 -0.1743290E+00 -0.1743290E+00  0.1743290E+00  -0.0000000E+00 -0.7071068E+00  0.7071068E+00
 -0.2046452E-16 -0.3486580E+00  0.0000000E+00  -0.0000000E+00 -0.7071068E+00  0.7071068E+00
  0.1743290E+00 -0.1743290E+00  0.1743290E+00  -0.0000000E+00 -0.7071068E+00  0.7071068E+00
 -0.4092904E-16  0.0000000E+00  0.3486580E+00  -0.0000000E+00 -0.7071068E+00  0.7071068E+00
           4
 -0.1743290E+00  0.1743290E+00  0.1743290E+00  -0.7071068E+00  0.7071068E+00 -0.3228985E-15
 -0.4092904E-16  0.3486580E+00 -0.4092904E-16  -0.7071068E+00  0.7071068E+00 -0.3228985E-15
 -0.1743290E+00  0.1743290E+00 -0.1743290E+00  -0.7071068E+00  0.7071068E+00 -0.3228985E-15
 -0.3486580E+00 -0.0000000E+00 -0.4092904E-16  -0.7071068E+00  0.7071068E+00 -0.3228985E-15
           4
 -0.1743290E+00  0.1743290E+00  0.1743290E+00  -0.7071068E+00 -0.0000000E+00  0.7071068E+00
 -0.3486580E+00 -0.0000000E+00 -0.4092904E-16  -0.7071068E+00 -0.0000000E+00  0.7071068E+00
 -0.1743290E+00 -0.1743290E+00  0.1743290E+00  -0.7071068E+00 -0.0000000E+00  0.7071068E+00
 -0.4092904E-16 -0.0000000E+00  0.3486580E+00  -0.7071068E+00 -0.0000000E+00  0.7071068E+00
           4
  0.3486580E+00  0.0000000E+00 -0.4092904E-16   0.7071068E+00  0.7071068E+00 -0.3228985E-15
  0.1743290E+00  0.1743290E+00 -0.1743290E+00   0.7071068E+00  0.7071068E+00 -0.3228985E-15
  0.4092904E-16  0.3486580E+00 -0.4092904E-16   0.7071068E+00  0.7071068E+00 -0.3228985E-15
  0.1743290E+00  0.1743290E+00  0.1743290E+00   0.7071068E+00  0.7071068E+00 -0.3228985E-15
           4
  0.4092904E-16  0.0000000E+00  0.3486580E+00   0.7071068E+00  0.0000000E+00  0.7071068E+00
  0.1743290E+00 -0.1743290E+00  0.1743290E+00   0.7071068E+00  0.0000000E+00  0.7071068E+00
  0.3486580E+00  0.0000000E+00 -0.4092904E-16   0.7071068E+00  0.0000000E+00  0.7071068E+00
  0.1743290E+00  0.1743290E+00  0.1743290E+00   0.7071068E+00  0.0000000E+00  0.7071068E+00
           4
  0.4092904E-16  0.0000000E+00  0.3486580E+00   0.0000000E+00  0.7071068E+00  0.7071068E+00
  0.1743290E+00  0.1743290E+00  0.1743290E+00   0.0000000E+00  0.7071068E+00  0.7071068E+00
  0.4092904E-16  0.3486580E+00 -0.4092904E-16   0.0000000E+00  0.7071068E+00  0.7071068E+00
 -0.1743290E+00  0.1743290E+00  0.1743290E+00   0.0000000E+00  0.7071068E+00  0.7071068E+00
 BRILLOUIN-ZONE-PRIMCELL_END
 BRILLOUIN-ZONE-CONVCELL
           4
 -0.1743290E+00 -0.1743290E+00  0.1743290E+00  -0.1000000E+01  0.0000000E+00  0.0000000E+00
 -0.1743290E+00  0.1743290E+00  0.1743290E+00  -0.1000000E+01  0.0000000E+00  0.0000000E+00
 -0.1743290E+00  0.1743290E+00 -0.1743290E+00  -0.1000000E+01  0.0000000E+00  0.0000000E+00
 -0.1743290E+00 -0.1743290E+00 -0.1743290E+00  -0.1000000E+01  0.0000000E+00  0.0000000E+00
           4
 -0.1743290E+00 -0.1743290E+00 -0.1743290E+00  -0.0000000E+00 -0.1000000E+01 -0.0000000E+00
  0.1743290E+00 -0.1743290E+00 -0.1743290E+00  -0.0000000E+00 -0.1000000E+01 -0.0000000E+00
  0.1743290E+00 -0.1743290E+00  0.1743290E+00  -0.0000000E+00 -0.1000000E+01 -0.0000000E+00
 -0.1743290E+00 -0.1743290E+00  0.1743290E+00  -0.0000000E+00 -0.1000000E+01 -0.0000000E+00
           4
 -0.1743290E+00  0.1743290E+00 -0.1743290E+00   0.0000000E+00  0.0000000E+00 -0.1000000E+01
  0.1743290E+00  0.1743290E+00 -0.1743290E+00   0.0000000E+00  0.0000000E+00 -0.1000000E+01
  0.1743290E+00 -0.1743290E+00 -0.1743290E+00   0.0000000E+00  0.0000000E+00 -0.1000000E+01
 -0.1743290E+00 -0.1743290E+00 -0.1743290E+00   0.0000000E+00  0.0000000E+00 -0.1000000E+01
           4
 -0.1743290E+00 -0.1743290E+00  0.1743290E+00  -0.0000000E+00 -0.0000000E+00  0.1000000E+01
  0.1743290E+00 -0.1743290E+00  0.1743290E+00  -0.0000000E+00 -0.0000000E+00  0.1000000E+01
  0.1743290E+00  0.1743290E+00  0.1743290E+00  -0.0000000E+00 -0.0000000E+00  0.1000000E+01
 -0.1743290E+00  0.1743290E+00  0.1743290E+00  -0.0000000E+00 -0.0000000E+00  0.1000000E+01
           4
 -0.1743290E+00  0.1743290E+00  0.1743290E+00   0.0000000E+00  0.1000000E+01  0.0000000E+00
  0.1743290E+00  0.1743290E+00  0.1743290E+00   0.0000000E+00  0.1000000E+01  0.0000000E+00
  0.1743290E+00  0.1743290E+00 -0.1743290E+00   0.0000000E+00  0.1000000E+01  0.0000000E+00
 -0.1743290E+00  0.1743290E+00 -0.1743290E+00   0.0000000E+00  0.1000000E+01  0.0000000E+00
           4
  0.1743290E+00 -0.1743290E+00 -0.1743290E+00   0.1000000E+01 -0.0000000E+00 -0.0000000E+00
  0.1743290E+00  0.1743290E+00 -0.1743290E+00   0.1000000E+01 -0.0000000E+00 -0.0000000E+00
  0.1743290E+00  0.1743290E+00  0.1743290E+00   0.1000000E+01 -0.0000000E+00 -0.0000000E+00
  0.1743290E+00 -0.1743290E+00  0.1743290E+00   0.1000000E+01 -0.0000000E+00 -0.0000000E+00
 BRILLOUIN-ZONE-CONVCELL_END
 ATOMS
   26    0.0000000000    0.0000000000    0.0000000000
   26    1.4340702350    1.4340702350    1.4340702350
   26    0.0000000000    0.0000000000    2.8681404710
   26    0.0000000000    2.8681404710    0.0000000000
   26    0.0000000000    2.8681404710    2.8681404710
   26    2.8681404710    0.0000000000    0.0000000000
   26    2.8681404710    0.0000000000    2.8681404710
   26    2.8681404710    2.8681404710    0.0000000000
   26    2.8681404710    2.8681404710    2.8681404710
 FRAMES
1      0.0000000000    0.0000000000    0.0000000000      2.8681404710    0.0000000000    0.0000000000
1      0.0000000000    0.0000000000    0.0000000000      0.0000000000    2.8681404710    0.0000000000
1      0.0000000000    0.0000000000    0.0000000000      0.0000000000    0.0000000000    2.8681404710
1      0.0000000000    0.0000000000    2.8681404710      2.8681404710    0.0000000000    2.8681404710
1      0.0000000000    0.0000000000    2.8681404710      0.0000000000    2.8681404710    2.8681404710
1      0.0000000000    2.8681404710    0.0000000000      2.8681404710    2.8681404710    0.0000000000
1      0.0000000000    2.8681404710    0.0000000000      0.0000000000    2.8681404710    2.8681404710
1      0.0000000000    2.8681404710    2.8681404710      2.8681404710    2.8681404710    2.8681404710
1      2.8681404710    0.0000000000    0.0000000000      2.8681404710    2.8681404710    0.0000000000
1      2.8681404710    0.0000000000    0.0000000000      2.8681404710    0.0000000000    2.8681404710
1      2.8681404710    0.0000000000    2.8681404710      2.8681404710    2.8681404710    2.8681404710
1      2.8681404710    2.8681404710    0.0000000000      2.8681404710    2.8681404710    2.8681404710
